<?xml version="1.0" encoding="UTF-8"?>

<!-- generated on 2024-11-06 14:38:48 by Eclipse SUMO netedit Version 1.20.0
-->

<additional xmlns:xsi="http://www.w3.org/2001/XMLSchema-instance" xsi:noNamespaceSchemaLocation="http://sumo.dlr.de/xsd/additional_file.xsd">
    <!-- StoppingPlaces -->
    <busStop id="bs_0" lane="E21_0" startPos="25.00"/>
    <busStop id="bs_1" lane="E23_0" startPos="507.44" endPos="657.44"/>
    <busStop id="bs_2" lane="E24_0" startPos="954.47" endPos="1104.47"/>
    <busStop id="bs_3" lane="E27_0" startPos="25.00"/>
    <busStop id="bs_4" lane="E29_0" startPos="725.00" endPos="875.00"/>
    <busStop id="bs_5" lane="E30_0" startPos="525.00" endPos="675.00"/>
    <busStop id="bs_6" lane="E31_0" startPos="644.82" endPos="794.82"/>
    <busStop id="bs_7" lane="E32_0" startPos="564.45" endPos="714.45"/>
    <busStop id="bs_8" lane="E35_0" startPos="25.00"/>
    <busStop id="bs_9" lane="E37_0" startPos="425.00" endPos="575.00"/>
</additional>
