<?xml version="1.0" encoding="UTF-8"?>

<!-- generated on 2024-11-06 16:31:38 by Eclipse SUMO duarouter Version 1.20.0
<configuration xmlns:xsi="http://www.w3.org/2001/XMLSchema-instance" xsi:noNamespaceSchemaLocation="http://sumo.dlr.de/xsd/duarouterConfiguration.xsd">

    <input>
        <net-file value="network.net.xml"/>
        <additional-files value="additional.add.xml"/>
        <route-files value="network_trips.trips.xml"/>
    </input>

    <output>
        <output-file value="network.rou.xml"/>
    </output>

    <report>
        <ignore-errors value="true"/>
    </report>

</configuration>
-->

<routes xmlns:xsi="http://www.w3.org/2001/XMLSchema-instance" xsi:noNamespaceSchemaLocation="http://sumo.dlr.de/xsd/routes_file.xsd">
    <vType id="train_stopping" length="150.00" maxSpeed="35.00" vClass="rail" color="red"/>
    <vehicle id="trip_stop_1" type="train_stopping" depart="0.00">
        <route edges="E18 E20 E21 E22 E23 E24 E26 E27 E28 E29 E30 E31 E32 E34 E35 E36 E37"/>
        <stop busStop="bs_0" duration="30.00"/>
        <stop busStop="bs_1" duration="30.00"/>
        <stop busStop="bs_2" duration="30.00"/>
        <stop busStop="bs_3" duration="30.00"/>
        <stop busStop="bs_4" duration="30.00"/>
        <stop busStop="bs_5" duration="30.00"/>
        <stop busStop="bs_6" duration="30.00"/>
        <stop busStop="bs_7" duration="30.00"/>
        <stop busStop="bs_8" duration="30.00"/>
        <stop busStop="bs_9" duration="30.00"/>
    </vehicle>
    <vType id="train_non_stopping" length="150.00" maxSpeed="35.00" vClass="rail" color="blue"/>
    <vehicle id="trip_skip_1" type="train_non_stopping" depart="600.00">
        <route edges="E18 E19 E23 E24 E25 E29 E30 E31 E32 E33 E37"/>
        <stop busStop="bs_1" duration="30.00"/>
        <stop busStop="bs_2" duration="30.00"/>
        <stop busStop="bs_4" duration="30.00"/>
        <stop busStop="bs_5" duration="30.00"/>
        <stop busStop="bs_6" duration="30.00"/>
        <stop busStop="bs_7" duration="30.00"/>
        <stop busStop="bs_9" duration="30.00"/>
    </vehicle>
    <vehicle id="trip_stop_2" type="train_stopping" depart="1200.00">
        <route edges="E18 E20 E21 E22 E23 E24 E26 E27 E28 E29 E30 E31 E32 E34 E35 E36 E37"/>
        <stop busStop="bs_0" duration="30.00"/>
        <stop busStop="bs_1" duration="30.00"/>
        <stop busStop="bs_2" duration="30.00"/>
        <stop busStop="bs_3" duration="30.00"/>
        <stop busStop="bs_4" duration="30.00"/>
        <stop busStop="bs_5" duration="30.00"/>
        <stop busStop="bs_6" duration="30.00"/>
        <stop busStop="bs_7" duration="30.00"/>
        <stop busStop="bs_8" duration="30.00"/>
        <stop busStop="bs_9" duration="30.00"/>
    </vehicle>
    <vehicle id="trip_skip_2" type="train_non_stopping" depart="1800.00">
        <route edges="E18 E19 E23 E24 E25 E29 E30 E31 E32 E33 E37"/>
        <stop busStop="bs_1" duration="30.00"/>
        <stop busStop="bs_2" duration="30.00"/>
        <stop busStop="bs_4" duration="30.00"/>
        <stop busStop="bs_5" duration="30.00"/>
        <stop busStop="bs_6" duration="30.00"/>
        <stop busStop="bs_7" duration="30.00"/>
        <stop busStop="bs_9" duration="30.00"/>
    </vehicle>
    <vehicle id="trip_stop_3" type="train_stopping" depart="2400.00">
        <route edges="E18 E20 E21 E22 E23 E24 E26 E27 E28 E29 E30 E31 E32 E34 E35 E36 E37"/>
        <stop busStop="bs_0" duration="30.00"/>
        <stop busStop="bs_1" duration="30.00"/>
        <stop busStop="bs_2" duration="30.00"/>
        <stop busStop="bs_3" duration="30.00"/>
        <stop busStop="bs_4" duration="30.00"/>
        <stop busStop="bs_5" duration="30.00"/>
        <stop busStop="bs_6" duration="30.00"/>
        <stop busStop="bs_7" duration="30.00"/>
        <stop busStop="bs_8" duration="30.00"/>
        <stop busStop="bs_9" duration="30.00"/>
    </vehicle>
    <vehicle id="trip_skip_3" type="train_non_stopping" depart="3000.00">
        <route edges="E18 E19 E23 E24 E25 E29 E30 E31 E32 E33 E37"/>
        <stop busStop="bs_1" duration="30.00"/>
        <stop busStop="bs_2" duration="30.00"/>
        <stop busStop="bs_4" duration="30.00"/>
        <stop busStop="bs_5" duration="30.00"/>
        <stop busStop="bs_6" duration="30.00"/>
        <stop busStop="bs_7" duration="30.00"/>
        <stop busStop="bs_9" duration="30.00"/>
    </vehicle>
    <vehicle id="trip_stop_4" type="train_stopping" depart="3600.00">
        <route edges="E18 E20 E21 E22 E23 E24 E26 E27 E28 E29 E30 E31 E32 E34 E35 E36 E37"/>
        <stop busStop="bs_0" duration="30.00"/>
        <stop busStop="bs_1" duration="30.00"/>
        <stop busStop="bs_2" duration="30.00"/>
        <stop busStop="bs_3" duration="30.00"/>
        <stop busStop="bs_4" duration="30.00"/>
        <stop busStop="bs_5" duration="30.00"/>
        <stop busStop="bs_6" duration="30.00"/>
        <stop busStop="bs_7" duration="30.00"/>
        <stop busStop="bs_8" duration="30.00"/>
        <stop busStop="bs_9" duration="30.00"/>
    </vehicle>
    <vehicle id="trip_skip_4" type="train_non_stopping" depart="4200.00">
        <route edges="E18 E19 E23 E24 E25 E29 E30 E31 E32 E33 E37"/>
        <stop busStop="bs_1" duration="30.00"/>
        <stop busStop="bs_2" duration="30.00"/>
        <stop busStop="bs_4" duration="30.00"/>
        <stop busStop="bs_5" duration="30.00"/>
        <stop busStop="bs_6" duration="30.00"/>
        <stop busStop="bs_7" duration="30.00"/>
        <stop busStop="bs_9" duration="30.00"/>
    </vehicle>
    <vehicle id="trip_stop_5" type="train_stopping" depart="4800.00">
        <route edges="E18 E20 E21 E22 E23 E24 E26 E27 E28 E29 E30 E31 E32 E34 E35 E36 E37"/>
        <stop busStop="bs_0" duration="30.00"/>
        <stop busStop="bs_1" duration="30.00"/>
        <stop busStop="bs_2" duration="30.00"/>
        <stop busStop="bs_3" duration="30.00"/>
        <stop busStop="bs_4" duration="30.00"/>
        <stop busStop="bs_5" duration="30.00"/>
        <stop busStop="bs_6" duration="30.00"/>
        <stop busStop="bs_7" duration="30.00"/>
        <stop busStop="bs_8" duration="30.00"/>
        <stop busStop="bs_9" duration="30.00"/>
    </vehicle>
    <vehicle id="trip_skip_5" type="train_non_stopping" depart="5400.00">
        <route edges="E18 E19 E23 E24 E25 E29 E30 E31 E32 E33 E37"/>
        <stop busStop="bs_1" duration="30.00"/>
        <stop busStop="bs_2" duration="30.00"/>
        <stop busStop="bs_4" duration="30.00"/>
        <stop busStop="bs_5" duration="30.00"/>
        <stop busStop="bs_6" duration="30.00"/>
        <stop busStop="bs_7" duration="30.00"/>
        <stop busStop="bs_9" duration="30.00"/>
    </vehicle>
    <vehicle id="trip_stop_6" type="train_stopping" depart="6000.00">
        <route edges="E18 E20 E21 E22 E23 E24 E26 E27 E28 E29 E30 E31 E32 E34 E35 E36 E37"/>
        <stop busStop="bs_0" duration="30.00"/>
        <stop busStop="bs_1" duration="30.00"/>
        <stop busStop="bs_2" duration="30.00"/>
        <stop busStop="bs_3" duration="30.00"/>
        <stop busStop="bs_4" duration="30.00"/>
        <stop busStop="bs_5" duration="30.00"/>
        <stop busStop="bs_6" duration="30.00"/>
        <stop busStop="bs_7" duration="30.00"/>
        <stop busStop="bs_8" duration="30.00"/>
        <stop busStop="bs_9" duration="30.00"/>
    </vehicle>
    <vehicle id="trip_skip_6" type="train_non_stopping" depart="6600.00">
        <route edges="E18 E19 E23 E24 E25 E29 E30 E31 E32 E33 E37"/>
        <stop busStop="bs_1" duration="30.00"/>
        <stop busStop="bs_2" duration="30.00"/>
        <stop busStop="bs_4" duration="30.00"/>
        <stop busStop="bs_5" duration="30.00"/>
        <stop busStop="bs_6" duration="30.00"/>
        <stop busStop="bs_7" duration="30.00"/>
        <stop busStop="bs_9" duration="30.00"/>
    </vehicle>
    <vehicle id="trip_stop_7" type="train_stopping" depart="7200.00">
        <route edges="E18 E20 E21 E22 E23 E24 E26 E27 E28 E29 E30 E31 E32 E34 E35 E36 E37"/>
        <stop busStop="bs_0" duration="30.00"/>
        <stop busStop="bs_1" duration="30.00"/>
        <stop busStop="bs_2" duration="30.00"/>
        <stop busStop="bs_3" duration="30.00"/>
        <stop busStop="bs_4" duration="30.00"/>
        <stop busStop="bs_5" duration="30.00"/>
        <stop busStop="bs_6" duration="30.00"/>
        <stop busStop="bs_7" duration="30.00"/>
        <stop busStop="bs_8" duration="30.00"/>
        <stop busStop="bs_9" duration="30.00"/>
    </vehicle>
    <vehicle id="trip_skip_7" type="train_non_stopping" depart="7800.00">
        <route edges="E18 E19 E23 E24 E25 E29 E30 E31 E32 E33 E37"/>
        <stop busStop="bs_1" duration="30.00"/>
        <stop busStop="bs_2" duration="30.00"/>
        <stop busStop="bs_4" duration="30.00"/>
        <stop busStop="bs_5" duration="30.00"/>
        <stop busStop="bs_6" duration="30.00"/>
        <stop busStop="bs_7" duration="30.00"/>
        <stop busStop="bs_9" duration="30.00"/>
    </vehicle>
    <vehicle id="trip_stop_8" type="train_stopping" depart="8400.00">
        <route edges="E18 E20 E21 E22 E23 E24 E26 E27 E28 E29 E30 E31 E32 E34 E35 E36 E37"/>
        <stop busStop="bs_0" duration="30.00"/>
        <stop busStop="bs_1" duration="30.00"/>
        <stop busStop="bs_2" duration="30.00"/>
        <stop busStop="bs_3" duration="30.00"/>
        <stop busStop="bs_4" duration="30.00"/>
        <stop busStop="bs_5" duration="30.00"/>
        <stop busStop="bs_6" duration="30.00"/>
        <stop busStop="bs_7" duration="30.00"/>
        <stop busStop="bs_8" duration="30.00"/>
        <stop busStop="bs_9" duration="30.00"/>
    </vehicle>
    <vehicle id="trip_skip_8" type="train_non_stopping" depart="9000.00">
        <route edges="E18 E19 E23 E24 E25 E29 E30 E31 E32 E33 E37"/>
        <stop busStop="bs_1" duration="30.00"/>
        <stop busStop="bs_2" duration="30.00"/>
        <stop busStop="bs_4" duration="30.00"/>
        <stop busStop="bs_5" duration="30.00"/>
        <stop busStop="bs_6" duration="30.00"/>
        <stop busStop="bs_7" duration="30.00"/>
        <stop busStop="bs_9" duration="30.00"/>
    </vehicle>
    <vehicle id="trip_stop_9" type="train_stopping" depart="9600.00">
        <route edges="E18 E20 E21 E22 E23 E24 E26 E27 E28 E29 E30 E31 E32 E34 E35 E36 E37"/>
        <stop busStop="bs_0" duration="30.00"/>
        <stop busStop="bs_1" duration="30.00"/>
        <stop busStop="bs_2" duration="30.00"/>
        <stop busStop="bs_3" duration="30.00"/>
        <stop busStop="bs_4" duration="30.00"/>
        <stop busStop="bs_5" duration="30.00"/>
        <stop busStop="bs_6" duration="30.00"/>
        <stop busStop="bs_7" duration="30.00"/>
        <stop busStop="bs_8" duration="30.00"/>
        <stop busStop="bs_9" duration="30.00"/>
    </vehicle>
    <vehicle id="trip_skip_9" type="train_non_stopping" depart="10200.00">
        <route edges="E18 E19 E23 E24 E25 E29 E30 E31 E32 E33 E37"/>
        <stop busStop="bs_1" duration="30.00"/>
        <stop busStop="bs_2" duration="30.00"/>
        <stop busStop="bs_4" duration="30.00"/>
        <stop busStop="bs_5" duration="30.00"/>
        <stop busStop="bs_6" duration="30.00"/>
        <stop busStop="bs_7" duration="30.00"/>
        <stop busStop="bs_9" duration="30.00"/>
    </vehicle>
    <vehicle id="trip_stop_10" type="train_stopping" depart="10800.00">
        <route edges="E18 E20 E21 E22 E23 E24 E26 E27 E28 E29 E30 E31 E32 E34 E35 E36 E37"/>
        <stop busStop="bs_0" duration="30.00"/>
        <stop busStop="bs_1" duration="30.00"/>
        <stop busStop="bs_2" duration="30.00"/>
        <stop busStop="bs_3" duration="30.00"/>
        <stop busStop="bs_4" duration="30.00"/>
        <stop busStop="bs_5" duration="30.00"/>
        <stop busStop="bs_6" duration="30.00"/>
        <stop busStop="bs_7" duration="30.00"/>
        <stop busStop="bs_8" duration="30.00"/>
        <stop busStop="bs_9" duration="30.00"/>
    </vehicle>
    <vehicle id="trip_skip_10" type="train_non_stopping" depart="11400.00">
        <route edges="E18 E19 E23 E24 E25 E29 E30 E31 E32 E33 E37"/>
        <stop busStop="bs_1" duration="30.00"/>
        <stop busStop="bs_2" duration="30.00"/>
        <stop busStop="bs_4" duration="30.00"/>
        <stop busStop="bs_5" duration="30.00"/>
        <stop busStop="bs_6" duration="30.00"/>
        <stop busStop="bs_7" duration="30.00"/>
        <stop busStop="bs_9" duration="30.00"/>
    </vehicle>
    <vehicle id="trip_stop_11" type="train_stopping" depart="12000.00">
        <route edges="E18 E20 E21 E22 E23 E24 E26 E27 E28 E29 E30 E31 E32 E34 E35 E36 E37"/>
        <stop busStop="bs_0" duration="30.00"/>
        <stop busStop="bs_1" duration="30.00"/>
        <stop busStop="bs_2" duration="30.00"/>
        <stop busStop="bs_3" duration="30.00"/>
        <stop busStop="bs_4" duration="30.00"/>
        <stop busStop="bs_5" duration="30.00"/>
        <stop busStop="bs_6" duration="30.00"/>
        <stop busStop="bs_7" duration="30.00"/>
        <stop busStop="bs_8" duration="30.00"/>
        <stop busStop="bs_9" duration="30.00"/>
    </vehicle>
    <vehicle id="trip_skip_11" type="train_non_stopping" depart="12600.00">
        <route edges="E18 E19 E23 E24 E25 E29 E30 E31 E32 E33 E37"/>
        <stop busStop="bs_1" duration="30.00"/>
        <stop busStop="bs_2" duration="30.00"/>
        <stop busStop="bs_4" duration="30.00"/>
        <stop busStop="bs_5" duration="30.00"/>
        <stop busStop="bs_6" duration="30.00"/>
        <stop busStop="bs_7" duration="30.00"/>
        <stop busStop="bs_9" duration="30.00"/>
    </vehicle>
    <vehicle id="trip_stop_12" type="train_stopping" depart="13200.00">
        <route edges="E18 E20 E21 E22 E23 E24 E26 E27 E28 E29 E30 E31 E32 E34 E35 E36 E37"/>
        <stop busStop="bs_0" duration="30.00"/>
        <stop busStop="bs_1" duration="30.00"/>
        <stop busStop="bs_2" duration="30.00"/>
        <stop busStop="bs_3" duration="30.00"/>
        <stop busStop="bs_4" duration="30.00"/>
        <stop busStop="bs_5" duration="30.00"/>
        <stop busStop="bs_6" duration="30.00"/>
        <stop busStop="bs_7" duration="30.00"/>
        <stop busStop="bs_8" duration="30.00"/>
        <stop busStop="bs_9" duration="30.00"/>
    </vehicle>
    <vehicle id="trip_skip_12" type="train_non_stopping" depart="13800.00">
        <route edges="E18 E19 E23 E24 E25 E29 E30 E31 E32 E33 E37"/>
        <stop busStop="bs_1" duration="30.00"/>
        <stop busStop="bs_2" duration="30.00"/>
        <stop busStop="bs_4" duration="30.00"/>
        <stop busStop="bs_5" duration="30.00"/>
        <stop busStop="bs_6" duration="30.00"/>
        <stop busStop="bs_7" duration="30.00"/>
        <stop busStop="bs_9" duration="30.00"/>
    </vehicle>
    <vehicle id="trip_stop_13" type="train_stopping" depart="14400.00">
        <route edges="E18 E20 E21 E22 E23 E24 E26 E27 E28 E29 E30 E31 E32 E34 E35 E36 E37"/>
        <stop busStop="bs_0" duration="30.00"/>
        <stop busStop="bs_1" duration="30.00"/>
        <stop busStop="bs_2" duration="30.00"/>
        <stop busStop="bs_3" duration="30.00"/>
        <stop busStop="bs_4" duration="30.00"/>
        <stop busStop="bs_5" duration="30.00"/>
        <stop busStop="bs_6" duration="30.00"/>
        <stop busStop="bs_7" duration="30.00"/>
        <stop busStop="bs_8" duration="30.00"/>
        <stop busStop="bs_9" duration="30.00"/>
    </vehicle>
    <vehicle id="trip_skip_13" type="train_non_stopping" depart="15000.00">
        <route edges="E18 E19 E23 E24 E25 E29 E30 E31 E32 E33 E37"/>
        <stop busStop="bs_1" duration="30.00"/>
        <stop busStop="bs_2" duration="30.00"/>
        <stop busStop="bs_4" duration="30.00"/>
        <stop busStop="bs_5" duration="30.00"/>
        <stop busStop="bs_6" duration="30.00"/>
        <stop busStop="bs_7" duration="30.00"/>
        <stop busStop="bs_9" duration="30.00"/>
    </vehicle>
    <vehicle id="trip_stop_14" type="train_stopping" depart="15600.00">
        <route edges="E18 E20 E21 E22 E23 E24 E26 E27 E28 E29 E30 E31 E32 E34 E35 E36 E37"/>
        <stop busStop="bs_0" duration="30.00"/>
        <stop busStop="bs_1" duration="30.00"/>
        <stop busStop="bs_2" duration="30.00"/>
        <stop busStop="bs_3" duration="30.00"/>
        <stop busStop="bs_4" duration="30.00"/>
        <stop busStop="bs_5" duration="30.00"/>
        <stop busStop="bs_6" duration="30.00"/>
        <stop busStop="bs_7" duration="30.00"/>
        <stop busStop="bs_8" duration="30.00"/>
        <stop busStop="bs_9" duration="30.00"/>
    </vehicle>
    <vehicle id="trip_skip_14" type="train_non_stopping" depart="16200.00">
        <route edges="E18 E19 E23 E24 E25 E29 E30 E31 E32 E33 E37"/>
        <stop busStop="bs_1" duration="30.00"/>
        <stop busStop="bs_2" duration="30.00"/>
        <stop busStop="bs_4" duration="30.00"/>
        <stop busStop="bs_5" duration="30.00"/>
        <stop busStop="bs_6" duration="30.00"/>
        <stop busStop="bs_7" duration="30.00"/>
        <stop busStop="bs_9" duration="30.00"/>
    </vehicle>
    <vehicle id="trip_stop_15" type="train_stopping" depart="16800.00">
        <route edges="E18 E20 E21 E22 E23 E24 E26 E27 E28 E29 E30 E31 E32 E34 E35 E36 E37"/>
        <stop busStop="bs_0" duration="30.00"/>
        <stop busStop="bs_1" duration="30.00"/>
        <stop busStop="bs_2" duration="30.00"/>
        <stop busStop="bs_3" duration="30.00"/>
        <stop busStop="bs_4" duration="30.00"/>
        <stop busStop="bs_5" duration="30.00"/>
        <stop busStop="bs_6" duration="30.00"/>
        <stop busStop="bs_7" duration="30.00"/>
        <stop busStop="bs_8" duration="30.00"/>
        <stop busStop="bs_9" duration="30.00"/>
    </vehicle>
    <vehicle id="trip_skip_15" type="train_non_stopping" depart="17400.00">
        <route edges="E18 E19 E23 E24 E25 E29 E30 E31 E32 E33 E37"/>
        <stop busStop="bs_1" duration="30.00"/>
        <stop busStop="bs_2" duration="30.00"/>
        <stop busStop="bs_4" duration="30.00"/>
        <stop busStop="bs_5" duration="30.00"/>
        <stop busStop="bs_6" duration="30.00"/>
        <stop busStop="bs_7" duration="30.00"/>
        <stop busStop="bs_9" duration="30.00"/>
    </vehicle>
    <vehicle id="trip_stop_16" type="train_stopping" depart="18000.00">
        <route edges="E18 E20 E21 E22 E23 E24 E26 E27 E28 E29 E30 E31 E32 E34 E35 E36 E37"/>
        <stop busStop="bs_0" duration="30.00"/>
        <stop busStop="bs_1" duration="30.00"/>
        <stop busStop="bs_2" duration="30.00"/>
        <stop busStop="bs_3" duration="30.00"/>
        <stop busStop="bs_4" duration="30.00"/>
        <stop busStop="bs_5" duration="30.00"/>
        <stop busStop="bs_6" duration="30.00"/>
        <stop busStop="bs_7" duration="30.00"/>
        <stop busStop="bs_8" duration="30.00"/>
        <stop busStop="bs_9" duration="30.00"/>
    </vehicle>
    <vehicle id="trip_skip_16" type="train_non_stopping" depart="18600.00">
        <route edges="E18 E19 E23 E24 E25 E29 E30 E31 E32 E33 E37"/>
        <stop busStop="bs_1" duration="30.00"/>
        <stop busStop="bs_2" duration="30.00"/>
        <stop busStop="bs_4" duration="30.00"/>
        <stop busStop="bs_5" duration="30.00"/>
        <stop busStop="bs_6" duration="30.00"/>
        <stop busStop="bs_7" duration="30.00"/>
        <stop busStop="bs_9" duration="30.00"/>
    </vehicle>
    <vehicle id="trip_stop_17" type="train_stopping" depart="19200.00">
        <route edges="E18 E20 E21 E22 E23 E24 E26 E27 E28 E29 E30 E31 E32 E34 E35 E36 E37"/>
        <stop busStop="bs_0" duration="30.00"/>
        <stop busStop="bs_1" duration="30.00"/>
        <stop busStop="bs_2" duration="30.00"/>
        <stop busStop="bs_3" duration="30.00"/>
        <stop busStop="bs_4" duration="30.00"/>
        <stop busStop="bs_5" duration="30.00"/>
        <stop busStop="bs_6" duration="30.00"/>
        <stop busStop="bs_7" duration="30.00"/>
        <stop busStop="bs_8" duration="30.00"/>
        <stop busStop="bs_9" duration="30.00"/>
    </vehicle>
    <vehicle id="trip_skip_17" type="train_non_stopping" depart="19800.00">
        <route edges="E18 E19 E23 E24 E25 E29 E30 E31 E32 E33 E37"/>
        <stop busStop="bs_1" duration="30.00"/>
        <stop busStop="bs_2" duration="30.00"/>
        <stop busStop="bs_4" duration="30.00"/>
        <stop busStop="bs_5" duration="30.00"/>
        <stop busStop="bs_6" duration="30.00"/>
        <stop busStop="bs_7" duration="30.00"/>
        <stop busStop="bs_9" duration="30.00"/>
    </vehicle>
    <vehicle id="trip_stop_18" type="train_stopping" depart="20400.00">
        <route edges="E18 E20 E21 E22 E23 E24 E26 E27 E28 E29 E30 E31 E32 E34 E35 E36 E37"/>
        <stop busStop="bs_0" duration="30.00"/>
        <stop busStop="bs_1" duration="30.00"/>
        <stop busStop="bs_2" duration="30.00"/>
        <stop busStop="bs_3" duration="30.00"/>
        <stop busStop="bs_4" duration="30.00"/>
        <stop busStop="bs_5" duration="30.00"/>
        <stop busStop="bs_6" duration="30.00"/>
        <stop busStop="bs_7" duration="30.00"/>
        <stop busStop="bs_8" duration="30.00"/>
        <stop busStop="bs_9" duration="30.00"/>
    </vehicle>
    <vehicle id="trip_skip_18" type="train_non_stopping" depart="21000.00">
        <route edges="E18 E19 E23 E24 E25 E29 E30 E31 E32 E33 E37"/>
        <stop busStop="bs_1" duration="30.00"/>
        <stop busStop="bs_2" duration="30.00"/>
        <stop busStop="bs_4" duration="30.00"/>
        <stop busStop="bs_5" duration="30.00"/>
        <stop busStop="bs_6" duration="30.00"/>
        <stop busStop="bs_7" duration="30.00"/>
        <stop busStop="bs_9" duration="30.00"/>
    </vehicle>
    <vehicle id="trip_stop_19" type="train_stopping" depart="21600.00">
        <route edges="E18 E20 E21 E22 E23 E24 E26 E27 E28 E29 E30 E31 E32 E34 E35 E36 E37"/>
        <stop busStop="bs_0" duration="30.00"/>
        <stop busStop="bs_1" duration="30.00"/>
        <stop busStop="bs_2" duration="30.00"/>
        <stop busStop="bs_3" duration="30.00"/>
        <stop busStop="bs_4" duration="30.00"/>
        <stop busStop="bs_5" duration="30.00"/>
        <stop busStop="bs_6" duration="30.00"/>
        <stop busStop="bs_7" duration="30.00"/>
        <stop busStop="bs_8" duration="30.00"/>
        <stop busStop="bs_9" duration="30.00"/>
    </vehicle>
    <vehicle id="trip_skip_19" type="train_non_stopping" depart="22200.00">
        <route edges="E18 E19 E23 E24 E25 E29 E30 E31 E32 E33 E37"/>
        <stop busStop="bs_1" duration="30.00"/>
        <stop busStop="bs_2" duration="30.00"/>
        <stop busStop="bs_4" duration="30.00"/>
        <stop busStop="bs_5" duration="30.00"/>
        <stop busStop="bs_6" duration="30.00"/>
        <stop busStop="bs_7" duration="30.00"/>
        <stop busStop="bs_9" duration="30.00"/>
    </vehicle>
    <vehicle id="trip_stop_20" type="train_stopping" depart="22800.00">
        <route edges="E18 E20 E21 E22 E23 E24 E26 E27 E28 E29 E30 E31 E32 E34 E35 E36 E37"/>
        <stop busStop="bs_0" duration="30.00"/>
        <stop busStop="bs_1" duration="30.00"/>
        <stop busStop="bs_2" duration="30.00"/>
        <stop busStop="bs_3" duration="30.00"/>
        <stop busStop="bs_4" duration="30.00"/>
        <stop busStop="bs_5" duration="30.00"/>
        <stop busStop="bs_6" duration="30.00"/>
        <stop busStop="bs_7" duration="30.00"/>
        <stop busStop="bs_8" duration="30.00"/>
        <stop busStop="bs_9" duration="30.00"/>
    </vehicle>
    <vehicle id="trip_skip_20" type="train_non_stopping" depart="23400.00">
        <route edges="E18 E19 E23 E24 E25 E29 E30 E31 E32 E33 E37"/>
        <stop busStop="bs_1" duration="30.00"/>
        <stop busStop="bs_2" duration="30.00"/>
        <stop busStop="bs_4" duration="30.00"/>
        <stop busStop="bs_5" duration="30.00"/>
        <stop busStop="bs_6" duration="30.00"/>
        <stop busStop="bs_7" duration="30.00"/>
        <stop busStop="bs_9" duration="30.00"/>
    </vehicle>
    <vehicle id="trip_stop_21" type="train_stopping" depart="24000.00">
        <route edges="E18 E20 E21 E22 E23 E24 E26 E27 E28 E29 E30 E31 E32 E34 E35 E36 E37"/>
        <stop busStop="bs_0" duration="30.00"/>
        <stop busStop="bs_1" duration="30.00"/>
        <stop busStop="bs_2" duration="30.00"/>
        <stop busStop="bs_3" duration="30.00"/>
        <stop busStop="bs_4" duration="30.00"/>
        <stop busStop="bs_5" duration="30.00"/>
        <stop busStop="bs_6" duration="30.00"/>
        <stop busStop="bs_7" duration="30.00"/>
        <stop busStop="bs_8" duration="30.00"/>
        <stop busStop="bs_9" duration="30.00"/>
    </vehicle>
    <vehicle id="trip_skip_21" type="train_non_stopping" depart="24600.00">
        <route edges="E18 E19 E23 E24 E25 E29 E30 E31 E32 E33 E37"/>
        <stop busStop="bs_1" duration="30.00"/>
        <stop busStop="bs_2" duration="30.00"/>
        <stop busStop="bs_4" duration="30.00"/>
        <stop busStop="bs_5" duration="30.00"/>
        <stop busStop="bs_6" duration="30.00"/>
        <stop busStop="bs_7" duration="30.00"/>
        <stop busStop="bs_9" duration="30.00"/>
    </vehicle>
    <vehicle id="trip_stop_22" type="train_stopping" depart="25200.00">
        <route edges="E18 E20 E21 E22 E23 E24 E26 E27 E28 E29 E30 E31 E32 E34 E35 E36 E37"/>
        <stop busStop="bs_0" duration="30.00"/>
        <stop busStop="bs_1" duration="30.00"/>
        <stop busStop="bs_2" duration="30.00"/>
        <stop busStop="bs_3" duration="30.00"/>
        <stop busStop="bs_4" duration="30.00"/>
        <stop busStop="bs_5" duration="30.00"/>
        <stop busStop="bs_6" duration="30.00"/>
        <stop busStop="bs_7" duration="30.00"/>
        <stop busStop="bs_8" duration="30.00"/>
        <stop busStop="bs_9" duration="30.00"/>
    </vehicle>
    <vehicle id="trip_skip_22" type="train_non_stopping" depart="25800.00">
        <route edges="E18 E19 E23 E24 E25 E29 E30 E31 E32 E33 E37"/>
        <stop busStop="bs_1" duration="30.00"/>
        <stop busStop="bs_2" duration="30.00"/>
        <stop busStop="bs_4" duration="30.00"/>
        <stop busStop="bs_5" duration="30.00"/>
        <stop busStop="bs_6" duration="30.00"/>
        <stop busStop="bs_7" duration="30.00"/>
        <stop busStop="bs_9" duration="30.00"/>
    </vehicle>
    <vehicle id="trip_stop_23" type="train_stopping" depart="26400.00">
        <route edges="E18 E20 E21 E22 E23 E24 E26 E27 E28 E29 E30 E31 E32 E34 E35 E36 E37"/>
        <stop busStop="bs_0" duration="30.00"/>
        <stop busStop="bs_1" duration="30.00"/>
        <stop busStop="bs_2" duration="30.00"/>
        <stop busStop="bs_3" duration="30.00"/>
        <stop busStop="bs_4" duration="30.00"/>
        <stop busStop="bs_5" duration="30.00"/>
        <stop busStop="bs_6" duration="30.00"/>
        <stop busStop="bs_7" duration="30.00"/>
        <stop busStop="bs_8" duration="30.00"/>
        <stop busStop="bs_9" duration="30.00"/>
    </vehicle>
    <vehicle id="trip_skip_23" type="train_non_stopping" depart="27000.00">
        <route edges="E18 E19 E23 E24 E25 E29 E30 E31 E32 E33 E37"/>
        <stop busStop="bs_1" duration="30.00"/>
        <stop busStop="bs_2" duration="30.00"/>
        <stop busStop="bs_4" duration="30.00"/>
        <stop busStop="bs_5" duration="30.00"/>
        <stop busStop="bs_6" duration="30.00"/>
        <stop busStop="bs_7" duration="30.00"/>
        <stop busStop="bs_9" duration="30.00"/>
    </vehicle>
    <vehicle id="trip_stop_24" type="train_stopping" depart="27600.00">
        <route edges="E18 E20 E21 E22 E23 E24 E26 E27 E28 E29 E30 E31 E32 E34 E35 E36 E37"/>
        <stop busStop="bs_0" duration="30.00"/>
        <stop busStop="bs_1" duration="30.00"/>
        <stop busStop="bs_2" duration="30.00"/>
        <stop busStop="bs_3" duration="30.00"/>
        <stop busStop="bs_4" duration="30.00"/>
        <stop busStop="bs_5" duration="30.00"/>
        <stop busStop="bs_6" duration="30.00"/>
        <stop busStop="bs_7" duration="30.00"/>
        <stop busStop="bs_8" duration="30.00"/>
        <stop busStop="bs_9" duration="30.00"/>
    </vehicle>
    <vehicle id="trip_skip_24" type="train_non_stopping" depart="28200.00">
        <route edges="E18 E19 E23 E24 E25 E29 E30 E31 E32 E33 E37"/>
        <stop busStop="bs_1" duration="30.00"/>
        <stop busStop="bs_2" duration="30.00"/>
        <stop busStop="bs_4" duration="30.00"/>
        <stop busStop="bs_5" duration="30.00"/>
        <stop busStop="bs_6" duration="30.00"/>
        <stop busStop="bs_7" duration="30.00"/>
        <stop busStop="bs_9" duration="30.00"/>
    </vehicle>
</routes>
